*
v1 v 0 sin(0 50n 10 0 0 0)
r1 v 0 50

.tran 1ms 1
.control
run
plot v(v)
.endc
.end
