Version 4
SHEET 1 1728 1248
WIRE 224 304 144 304
WIRE 368 304 224 304
WIRE 448 304 432 304
WIRE 480 304 448 304
WIRE 576 304 560 304
WIRE 688 304 576 304
WIRE 1088 304 1072 304
WIRE 1456 304 1440 304
WIRE 1696 304 1680 304
WIRE 816 320 784 320
WIRE 848 320 816 320
WIRE 960 320 928 320
WIRE 976 320 960 320
WIRE 1088 320 1088 304
WIRE 1120 320 1088 320
WIRE 1216 320 1184 320
WIRE 1328 320 1296 320
WIRE 1344 320 1328 320
WIRE 1456 320 1456 304
WIRE 1568 320 1536 320
WIRE 1584 320 1568 320
WIRE 688 336 640 336
WIRE -336 384 -384 384
WIRE -320 384 -336 384
WIRE -176 384 -240 384
WIRE 640 432 640 336
WIRE 688 432 640 432
WIRE 816 432 816 320
WIRE 816 432 768 432
WIRE 960 432 960 320
WIRE 992 432 960 432
WIRE 1088 432 1088 320
WIRE 1088 432 1072 432
WIRE 1328 432 1328 320
WIRE 1360 432 1328 432
WIRE 1456 432 1456 320
WIRE 1456 432 1440 432
WIRE 1568 432 1568 320
WIRE 1600 432 1568 432
WIRE 1696 432 1696 304
WIRE 1696 432 1680 432
WIRE -208 464 -240 464
WIRE -160 464 -208 464
WIRE 960 512 960 432
WIRE 992 512 960 512
WIRE 1088 512 1088 432
WIRE 1088 512 1056 512
WIRE 1328 512 1328 432
WIRE 1360 512 1328 512
WIRE 1456 512 1456 432
WIRE 1456 512 1424 512
WIRE 1568 512 1568 432
WIRE 1600 512 1568 512
WIRE 1696 512 1696 432
WIRE 1696 512 1664 512
WIRE -336 544 -384 544
WIRE -320 544 -320 464
WIRE -320 544 -336 544
WIRE 544 688 432 688
WIRE 672 704 640 704
WIRE 688 704 672 704
WIRE 544 720 496 720
WIRE 496 816 496 720
WIRE 688 816 688 704
WIRE 688 816 496 816
FLAG 416 1088 v-
FLAG 416 928 v+
FLAG 416 1008 0
FLAG -16 336 in+
FLAG -16 576 in+
FLAG -16 304 in-
FLAG -16 544 in-
FLAG -16 608 fil+
FLAG -16 368 fil+
FLAG -16 400 fil-
FLAG -16 640 fil-
FLAG 144 576 0
FLAG 144 368 v+
FLAG 144 608 v+
FLAG 144 640 v-
FLAG 144 400 v-
FLAG 144 336 0
FLAG -208 608 0
FLAG -384 624 0
FLAG -176 384 in+
FLAG -160 464 in-
FLAG 224 304 pre
FLAG -336 384 a
FLAG -336 544 b
FLAG -192 736 fil+
FLAG -192 800 fil-
FLAG 448 384 vref
FLAG 576 368 vref
FLAG 432 768 0
FLAG 432 608 v+
FLAG 576 672 v+
FLAG 576 736 0
FLAG 672 704 vref
FLAG 720 288 v+
FLAG 720 352 0
FLAG 640 512 vref
FLAG 1008 272 v+
FLAG 1008 336 0
FLAG 976 288 vref
FLAG 1376 272 v+
FLAG 1376 336 0
FLAG 1344 288 vref
FLAG 1616 272 v+
FLAG 1616 336 0
FLAG 1584 288 vref
FLAG 1696 304 out
SYMBOL voltage 416 912 R0
SYMATTR InstName V1
SYMATTR Value 4
SYMBOL voltage 416 992 R0
SYMATTR InstName V2
SYMATTR Value 4
SYMBOL AutoGenerated/AD8428 64 352 R0
SYMATTR InstName U1
SYMBOL AutoGenerated/AD8428 64 592 R0
SYMATTR InstName U2
SYMBOL ind -400 368 R0
SYMATTR InstName L1
SYMATTR Value 150n
SYMBOL res -400 528 R0
SYMATTR InstName R1
SYMATTR Value 10k
SYMBOL res -224 448 R90
WINDOW 0 0 56 VBottom 2
WINDOW 3 32 56 VTop 2
SYMATTR InstName R2
SYMATTR Value 100
SYMBOL res -224 368 R90
WINDOW 0 0 56 VBottom 2
WINDOW 3 32 56 VTop 2
SYMATTR InstName R3
SYMATTR Value 100
SYMBOL res -192 560 R180
WINDOW 0 36 76 Left 2
WINDOW 3 36 40 Left 2
SYMATTR InstName R4
SYMATTR Value 100
SYMBOL cap -224 544 R0
SYMATTR InstName C1
SYMATTR Value 100n
SYMBOL voltage -384 448 R0
WINDOW 3 -208 67 Left 2
SYMATTR Value SINE(0 100n 3k)
SYMATTR InstName V3
SYMATTR Value2 AC 100n
SYMBOL cap -208 736 R0
SYMATTR InstName C2
SYMATTR Value 5n
SYMBOL cap 432 288 R90
WINDOW 0 0 32 VBottom 2
WINDOW 3 32 32 VTop 2
SYMATTR InstName C3
SYMATTR Value 100n
SYMBOL res 432 288 R0
SYMATTR InstName R5
SYMATTR Value 2k
SYMBOL res 576 288 R90
WINDOW 0 0 56 VBottom 2
WINDOW 3 32 56 VTop 2
SYMATTR InstName R6
SYMATTR Value 15k
SYMBOL cap 560 304 R0
SYMATTR InstName C4
SYMATTR Value 5n
SYMBOL AutoGenerated/ADA4528 592 704 R0
SYMATTR InstName U3
SYMBOL res 416 592 R0
SYMATTR InstName R7
SYMATTR Value 1k
SYMBOL res 416 672 R0
SYMATTR InstName R8
SYMATTR Value 1k
SYMBOL AutoGenerated/ADA4528 736 320 R0
SYMATTR InstName U4
SYMBOL res 624 416 R0
SYMATTR InstName R9
SYMATTR Value 100
SYMBOL res 784 416 R90
WINDOW 0 0 56 VBottom 2
WINDOW 3 32 56 VTop 2
SYMATTR InstName R10
SYMATTR Value 1k
SYMBOL AutoGenerated/ADA4528 1024 304 R0
SYMATTR InstName U5
SYMBOL res 944 304 R90
WINDOW 0 0 56 VBottom 2
WINDOW 3 32 56 VTop 2
SYMATTR InstName R11
SYMATTR Value 100
SYMBOL res 1088 416 R90
WINDOW 0 0 56 VBottom 2
WINDOW 3 32 56 VTop 2
SYMATTR InstName R12
SYMATTR Value 1k
SYMBOL cap 1056 496 R90
WINDOW 0 0 32 VBottom 2
WINDOW 3 32 32 VTop 2
SYMATTR InstName C5
SYMATTR Value 31n
SYMBOL AutoGenerated/ADA4528 1392 304 R0
SYMATTR InstName U6
SYMBOL res 1312 304 R90
WINDOW 0 0 56 VBottom 2
WINDOW 3 32 56 VTop 2
SYMATTR InstName R13
SYMATTR Value 100
SYMBOL res 1456 416 R90
WINDOW 0 0 56 VBottom 2
WINDOW 3 32 56 VTop 2
SYMATTR InstName R14
SYMATTR Value 1k
SYMBOL cap 1424 496 R90
WINDOW 0 0 32 VBottom 2
WINDOW 3 32 32 VTop 2
SYMATTR InstName C6
SYMATTR Value 31n
SYMBOL cap 1184 304 R90
WINDOW 0 0 32 VBottom 2
WINDOW 3 32 32 VTop 2
SYMATTR InstName C7
SYMATTR Value 500n
SYMBOL AutoGenerated/ADA4528 1632 304 R0
SYMATTR InstName U7
SYMBOL res 1552 304 R90
WINDOW 0 0 56 VBottom 2
WINDOW 3 32 56 VTop 2
SYMATTR InstName R15
SYMATTR Value 100
SYMBOL res 1696 416 R90
WINDOW 0 0 56 VBottom 2
WINDOW 3 32 56 VTop 2
SYMATTR InstName R16
SYMATTR Value 2k
SYMBOL cap 1664 496 R90
WINDOW 0 0 32 VBottom 2
WINDOW 3 32 32 VTop 2
SYMATTR InstName C8
SYMATTR Value 31n
TEXT -168 72 Left 2 !;.tran 10u 5m\n;.ac oct 50 10 1Meg\n.noise v(out) v3 oct 100 0.1 1Meg\n;.op\n.temp -150
