Version 4
SHEET 1 928 1400
WIRE 304 560 224 560
WIRE 448 560 304 560
WIRE 528 560 512 560
WIRE 560 560 528 560
WIRE 656 560 640 560
WIRE 768 560 656 560
WIRE 896 576 864 576
WIRE 768 592 720 592
WIRE 720 688 720 592
WIRE 768 688 720 688
WIRE 896 688 896 576
WIRE 896 688 848 688
WIRE -224 800 -304 800
WIRE -304 880 -304 800
WIRE 624 944 512 944
WIRE 752 960 720 960
WIRE 768 960 752 960
WIRE 624 976 576 976
WIRE 576 1072 576 976
WIRE 768 1072 768 960
WIRE 768 1072 576 1072
FLAG 496 1344 v-
FLAG 496 1184 v+
FLAG 496 1264 0
FLAG 64 592 in+
FLAG 64 832 in+
FLAG 64 560 in-
FLAG 64 800 in-
FLAG 64 864 fil+
FLAG 64 624 fil+
FLAG 64 656 fil-
FLAG 64 896 fil-
FLAG 224 832 0
FLAG 224 624 v+
FLAG 224 864 v+
FLAG 224 896 v-
FLAG 224 656 v-
FLAG 224 592 0
FLAG -304 880 0
FLAG 304 560 pre
FLAG 528 640 vref
FLAG 656 624 vref
FLAG 512 1024 0
FLAG 512 864 v+
FLAG 656 928 v+
FLAG 656 992 0
FLAG 752 960 vref
FLAG 800 544 v+
FLAG 800 608 0
FLAG 720 768 vref
FLAG -224 800 in-
FLAG -304 720 in+
FLAG 896 576 out
SYMBOL voltage 496 1168 R0
SYMATTR InstName V1
SYMATTR Value 4
SYMBOL voltage 496 1248 R0
SYMATTR InstName V2
SYMATTR Value 4
SYMBOL AutoGenerated/AD8428 144 608 R0
SYMATTR InstName U1
SYMBOL AutoGenerated/AD8428 144 848 R0
SYMATTR InstName U2
SYMBOL voltage -304 704 R0
WINDOW 3 -208 67 Left 2
SYMATTR Value SINE(0 100n 3k)
SYMATTR InstName V3
SYMATTR Value2 AC 100n
SYMBOL cap 512 544 R90
WINDOW 0 0 32 VBottom 2
WINDOW 3 32 32 VTop 2
SYMATTR InstName C3
SYMATTR Value 100n
SYMBOL res 512 544 R0
SYMATTR InstName R5
SYMATTR Value 1.5k
SYMBOL res 656 544 R90
WINDOW 0 0 56 VBottom 2
WINDOW 3 32 56 VTop 2
SYMATTR InstName R6
SYMATTR Value 15k
SYMBOL cap 640 560 R0
SYMATTR InstName C4
SYMATTR Value 1n
SYMBOL AutoGenerated/ADA4528 672 960 R0
SYMATTR InstName U3
SYMBOL res 496 848 R0
SYMATTR InstName R7
SYMATTR Value 1k
SYMBOL res 496 928 R0
SYMATTR InstName R8
SYMATTR Value 1k
SYMBOL AutoGenerated/ADA4528 816 576 R0
SYMATTR InstName U4
SYMBOL res 704 672 R0
SYMATTR InstName R9
SYMATTR Value 100
SYMBOL res 864 672 R90
WINDOW 0 0 56 VBottom 2
WINDOW 3 32 56 VTop 2
SYMATTR InstName R10
SYMATTR Value 100k
TEXT -328 592 Left 2 !.ac oct 10 10 1Meg
